<vehicle id="car_1" type="car" route="route_0" depart="0"/>
<vehicle id="bus_1" type="bus" route="route_1" depart="5"/>